Version 4
SHEET 1 2928 680
WIRE -1248 -512 -1648 -512
WIRE -832 -512 -1248 -512
WIRE -432 -512 -832 -512
WIRE -48 -512 -432 -512
WIRE 368 -512 368 -560
WIRE 368 -512 -48 -512
WIRE 768 -512 368 -512
WIRE 1184 -512 768 -512
WIRE 1600 -512 1184 -512
WIRE 2000 -512 1600 -512
WIRE -1648 -432 -1648 -448
WIRE -1248 -432 -1248 -448
WIRE -832 -432 -832 -448
WIRE -432 -432 -432 -448
WIRE -48 -432 -48 -448
WIRE 368 -432 368 -448
WIRE 768 -432 768 -448
WIRE 1184 -432 1184 -448
WIRE 1600 -432 1600 -448
WIRE 2000 -432 2000 -448
WIRE -1808 -384 -1888 -384
WIRE -1712 -384 -1728 -384
WIRE -1408 -384 -1488 -384
WIRE -1312 -384 -1328 -384
WIRE -992 -384 -1072 -384
WIRE -896 -384 -912 -384
WIRE -592 -384 -672 -384
WIRE -496 -384 -512 -384
WIRE -208 -384 -288 -384
WIRE -112 -384 -128 -384
WIRE 208 -384 128 -384
WIRE 304 -384 288 -384
WIRE 608 -384 528 -384
WIRE 704 -384 688 -384
WIRE 1024 -384 944 -384
WIRE 1120 -384 1104 -384
WIRE 1440 -384 1360 -384
WIRE 1536 -384 1520 -384
WIRE 1840 -384 1760 -384
WIRE 1936 -384 1920 -384
WIRE -1648 -176 -1648 -336
WIRE -1248 -176 -1248 -336
WIRE -1248 -176 -1648 -176
WIRE -832 -176 -832 -336
WIRE -832 -176 -1248 -176
WIRE -432 -176 -432 -336
WIRE -432 -176 -832 -176
WIRE -48 -176 -48 -336
WIRE -48 -176 -432 -176
WIRE 368 -176 368 -336
WIRE 368 -176 -48 -176
WIRE 768 -176 768 -336
WIRE 768 -176 368 -176
WIRE 1184 -176 1184 -336
WIRE 1184 -176 768 -176
WIRE 1600 -176 1600 -336
WIRE 1600 -176 1184 -176
WIRE 2000 -176 2000 -336
WIRE 2000 -176 1600 -176
WIRE 256 -96 176 -96
WIRE 368 -16 368 -176
WIRE 256 0 256 -96
WIRE 368 48 368 -16
WIRE 176 64 176 -96
WIRE -144 80 -224 80
WIRE -32 80 -64 80
WIRE 144 80 -32 80
WIRE -224 96 -224 80
WIRE 304 96 208 96
WIRE 144 112 128 112
WIRE 128 176 128 112
WIRE 368 176 368 144
WIRE 368 176 128 176
WIRE -32 192 -32 144
WIRE 176 224 176 128
WIRE 368 224 368 176
WIRE 368 224 288 224
WIRE 416 224 368 224
WIRE 288 256 288 224
WIRE 416 256 416 224
WIRE 288 368 288 336
WIRE 416 368 416 336
WIRE 288 480 288 448
WIRE 352 480 288 480
WIRE 416 480 416 448
WIRE 416 480 352 480
WIRE 352 496 352 480
FLAG 176 304 0
FLAG 256 0 0
FLAG 368 -640 0
FLAG -224 176 0
FLAG -32 192 0
FLAG 368 -16 VOUT
IOPIN 368 -16 Out
FLAG 128 -304 0
FLAG 528 -304 0
FLAG -288 -304 0
FLAG 352 496 0
FLAG -1072 -304 0
FLAG -672 -304 0
FLAG -1488 -304 0
FLAG 1360 -304 0
FLAG 1760 -304 0
FLAG 944 -304 0
FLAG -1888 -304 0
SYMBOL cap -48 80 R0
SYMATTR InstName C1
SYMATTR Value 22µ
SYMBOL voltage -224 80 R0
WINDOW 3 24 44 Left 2
WINDOW 123 0 0 Left 0
WINDOW 39 0 0 Left 0
SYMATTR Value PULSE(0 3.3 0 0 0 20u 100u)
SYMATTR InstName V1
SYMBOL npn 304 48 R0
SYMATTR InstName Q1
SYMATTR Value Q2sd882
SYMBOL res 272 240 R0
SYMATTR InstName R1
SYMATTR Value 10
SYMBOL OpAmps\\OP07 176 160 M180
SYMATTR InstName U1
SYMBOL voltage 368 -544 R180
WINDOW 123 0 0 Left 0
WINDOW 39 0 0 Left 0
SYMATTR InstName V2
SYMATTR Value 5
SYMBOL voltage 176 208 R0
WINDOW 123 0 0 Left 0
WINDOW 39 0 0 Left 0
SYMATTR InstName V3
SYMATTR Value 3.3V
SYMBOL res -48 64 R90
WINDOW 0 0 56 VBottom 2
WINDOW 3 32 56 VTop 2
SYMATTR InstName R2
SYMATTR Value 10k
SYMBOL npn 304 -432 R0
SYMATTR InstName Q2
SYMATTR Value Q2sd882
SYMBOL LED 352 -512 R0
SYMATTR InstName D2
SYMBOL res 304 -400 R90
WINDOW 0 0 56 VBottom 2
WINDOW 3 32 56 VTop 2
SYMATTR InstName R3
SYMATTR Value 470
SYMBOL npn 704 -432 R0
SYMATTR InstName Q3
SYMATTR Value Q2sd882
SYMBOL voltage 528 -400 R0
WINDOW 3 24 44 Left 2
WINDOW 123 0 0 Left 0
WINDOW 39 0 0 Left 0
SYMATTR Value 0
SYMATTR InstName V5
SYMBOL LED 752 -512 R0
SYMATTR InstName D1
SYMBOL res 704 -400 R90
WINDOW 0 0 56 VBottom 2
WINDOW 3 32 56 VTop 2
SYMATTR InstName R4
SYMATTR Value 470
SYMBOL npn -112 -432 R0
SYMATTR InstName Q4
SYMATTR Value Q2sd882
SYMBOL LED -64 -512 R0
SYMATTR InstName D3
SYMBOL res -112 -400 R90
WINDOW 0 0 56 VBottom 2
WINDOW 3 32 56 VTop 2
SYMATTR InstName R5
SYMATTR Value 470
SYMBOL voltage 128 -400 R0
WINDOW 3 24 44 Left 2
WINDOW 123 0 0 Left 0
WINDOW 39 0 0 Left 0
SYMATTR Value 3.3
SYMATTR InstName V7
SYMBOL voltage -288 -400 R0
WINDOW 3 24 44 Left 2
WINDOW 123 0 0 Left 0
WINDOW 39 0 0 Left 0
SYMATTR Value 0
SYMATTR InstName V8
SYMBOL res 400 240 R0
SYMATTR InstName R6
SYMATTR Value 10
SYMBOL res 400 352 R0
SYMATTR InstName R7
SYMATTR Value 10
SYMBOL res 272 352 R0
SYMATTR InstName R8
SYMATTR Value 10
SYMBOL npn -896 -432 R0
SYMATTR InstName Q5
SYMATTR Value Q2sd882
SYMBOL LED -848 -512 R0
SYMATTR InstName D4
SYMBOL res -896 -400 R90
WINDOW 0 0 56 VBottom 2
WINDOW 3 32 56 VTop 2
SYMATTR InstName R9
SYMATTR Value 470
SYMBOL npn -496 -432 R0
SYMATTR InstName Q6
SYMATTR Value Q2sd882
SYMBOL voltage -672 -400 R0
WINDOW 3 24 44 Left 2
WINDOW 123 0 0 Left 0
WINDOW 39 0 0 Left 0
SYMATTR Value 0
SYMATTR InstName V6
SYMBOL LED -448 -512 R0
SYMATTR InstName D5
SYMBOL res -496 -400 R90
WINDOW 0 0 56 VBottom 2
WINDOW 3 32 56 VTop 2
SYMATTR InstName R10
SYMATTR Value 470
SYMBOL npn -1312 -432 R0
SYMATTR InstName Q7
SYMATTR Value Q2sd882
SYMBOL LED -1264 -512 R0
SYMATTR InstName D6
SYMBOL res -1312 -400 R90
WINDOW 0 0 56 VBottom 2
WINDOW 3 32 56 VTop 2
SYMATTR InstName R11
SYMATTR Value 470
SYMBOL voltage -1072 -400 R0
WINDOW 3 24 44 Left 2
WINDOW 123 0 0 Left 0
WINDOW 39 0 0 Left 0
SYMATTR Value 0
SYMATTR InstName V9
SYMBOL voltage -1488 -400 R0
WINDOW 3 24 44 Left 2
WINDOW 123 0 0 Left 0
WINDOW 39 0 0 Left 0
SYMATTR Value 0
SYMATTR InstName V10
SYMBOL npn 1536 -432 R0
SYMATTR InstName Q8
SYMATTR Value Q2sd882
SYMBOL LED 1584 -512 R0
SYMATTR InstName D7
SYMBOL res 1536 -400 R90
WINDOW 0 0 56 VBottom 2
WINDOW 3 32 56 VTop 2
SYMATTR InstName R12
SYMATTR Value 470
SYMBOL npn 1936 -432 R0
SYMATTR InstName Q9
SYMATTR Value Q2sd882
SYMBOL voltage 1760 -400 R0
WINDOW 3 24 44 Left 2
WINDOW 123 0 0 Left 0
WINDOW 39 0 0 Left 0
SYMATTR Value 0
SYMATTR InstName V12
SYMBOL LED 1984 -512 R0
SYMATTR InstName D8
SYMBOL res 1936 -400 R90
WINDOW 0 0 56 VBottom 2
WINDOW 3 32 56 VTop 2
SYMATTR InstName R13
SYMATTR Value 470
SYMBOL npn 1120 -432 R0
SYMATTR InstName Q10
SYMATTR Value Q2sd882
SYMBOL LED 1168 -512 R0
SYMATTR InstName D9
SYMBOL res 1120 -400 R90
WINDOW 0 0 56 VBottom 2
WINDOW 3 32 56 VTop 2
SYMATTR InstName R14
SYMATTR Value 470
SYMBOL voltage 1360 -400 R0
WINDOW 3 24 44 Left 2
WINDOW 123 0 0 Left 0
WINDOW 39 0 0 Left 0
SYMATTR Value 0
SYMATTR InstName V13
SYMBOL voltage 944 -400 R0
WINDOW 3 24 44 Left 2
WINDOW 123 0 0 Left 0
WINDOW 39 0 0 Left 0
SYMATTR Value 0
SYMATTR InstName V14
SYMBOL npn -1712 -432 R0
SYMATTR InstName Q11
SYMATTR Value Q2sd882
SYMBOL LED -1664 -512 R0
SYMATTR InstName D10
SYMBOL res -1712 -400 R90
WINDOW 0 0 56 VBottom 2
WINDOW 3 32 56 VTop 2
SYMATTR InstName R15
SYMATTR Value 470
SYMBOL voltage -1888 -400 R0
WINDOW 3 24 44 Left 2
WINDOW 123 0 0 Left 0
WINDOW 39 0 0 Left 0
SYMATTR Value 0
SYMATTR InstName V15
TEXT -464 552 Left 2 !.model Q2sd882 NPN(Is=282f Xti=3 Eg=1.11 Vaf=100 Bf=200.7 Ise=288.7f Ne=1.368 Ikf=20 Nk=1.235 Xtb=1.5 Var=100 Br=52.37 Isc=8.515p Nc=1.527 Ikr=.2617 Rc=15.88m Cjc=166.3p Mjc=.4069 Vjc=.3905 Fc=.5 Cje=291.8p Mje=.3606 Vje=.75 Tr=10n Tf=1.551n Itf=1 Xtf=0 Vtf=10)
TEXT -464 576 Left 2 !.tran 1
