Version 4
SHEET 1 880 680
WIRE 160 -128 0 -128
WIRE 576 -128 400 -128
WIRE 0 -48 0 -128
WIRE 576 -48 576 -128
WIRE 400 -16 400 -128
WIRE 400 -16 256 -16
WIRE 160 32 160 -128
WIRE 400 32 400 -16
WIRE 256 176 256 -16
WIRE 16 224 -112 224
WIRE 160 224 160 112
WIRE 160 224 96 224
WIRE 240 224 160 224
WIRE 400 224 400 112
WIRE 400 224 336 224
WIRE 608 224 400 224
FLAG 576 32 0
FLAG 0 32 0
FLAG -112 304 0
FLAG 608 224 DIN
IOPIN 608 224 Out
SYMBOL res 144 16 R0
SYMATTR InstName R1
SYMATTR Value 1k
SYMBOL res 384 16 R0
SYMATTR InstName R2
SYMATTR Value 1k
SYMBOL voltage 0 -64 R0
WINDOW 123 0 0 Left 0
WINDOW 39 0 0 Left 0
SYMATTR InstName V1
SYMATTR Value 3.3
SYMBOL voltage 576 -64 R0
WINDOW 123 0 0 Left 0
WINDOW 39 0 0 Left 0
SYMATTR InstName V2
SYMATTR Value 5
SYMBOL voltage -112 208 R0
WINDOW 123 0 0 Left 0
WINDOW 39 0 0 Left 0
SYMATTR InstName V3
SYMATTR Value PULSE(0 3.3 0 10n 10n 837n 1.25u)
SYMBOL nmos 336 176 R90
SYMATTR InstName M1
SYMATTR Value 2N7002
SYMBOL res 112 208 R90
WINDOW 0 0 56 VBottom 2
WINDOW 3 32 56 VTop 2
SYMATTR InstName R3
SYMATTR Value 1k
TEXT -106 120 Left 2 !.tran 2u
