Version 4
SHEET 1 880 712
WIRE -192 368 -256 368
WIRE 128 368 -192 368
WIRE 368 464 288 464
WIRE 400 464 368 464
WIRE -576 480 -576 400
WIRE 128 480 128 368
WIRE -192 528 -192 368
WIRE -32 528 -32 496
WIRE 112 528 -32 528
WIRE 288 528 288 464
WIRE 288 528 208 528
WIRE -32 560 -32 528
WIRE -192 672 -192 608
FLAG -32 640 0
FLAG -32 496 TX
IOPIN -32 496 Out
FLAG 400 464 RX
IOPIN 400 464 Out
FLAG -576 560 0
FLAG -192 672 0
FLAG -256 368 SEL
IOPIN -256 368 In
FLAG -576 400 SEL
IOPIN -576 400 Out
FLAG 368 544 0
FLAG 288 592 0
SYMBOL voltage -32 544 R0
WINDOW 123 0 0 Left 0
WINDOW 39 0 0 Left 0
SYMATTR InstName V3
SYMATTR Value PULSE(0 3.3 0 0 0 50u 100u)
SYMBOL pmos 208 480 R90
SYMATTR InstName M1
SYMATTR Value AO4630_P
SYMBOL res -208 512 R0
SYMATTR InstName R4
SYMATTR Value 4.7k
SYMBOL voltage -576 464 R0
WINDOW 123 0 0 Left 0
WINDOW 39 0 0 Left 0
SYMATTR InstName V4
SYMATTR Value 3.3
SYMBOL res 352 448 R0
SYMATTR InstName R1
SYMATTR Value 4.7k
SYMBOL cap 272 528 R0
SYMATTR InstName C1
SYMATTR Value 1nF
TEXT -648 696 Left 2 !.tran 1m
